 &LAYERS_PARM01
 layers_taveFreq=0.,
 layers_diagFreq=0.,

 layers_name(1) = 'RHO',
 layers_krho(1) = 1,
#layers_bolus(1)=.FALSE.,
# t06, yr 20, monthly mean stats:
#   min= 33.995 , max= 37.5 <- or lower, but not by much
#    aver > from 37.023 to 37.087
# middle range (2-D annual mean from t04): 34.5 - 37.6
# t06, yr 21 -> 23, annual mean: 34.7733 - 37.7333
#-----
# t07, yr 18 -> 10, annual mean: 34.5447 - 37.7345
 layers_bounds(1:201,1) = 10.0,  11.0,  12.0,  13.0,  14.0,  15.0,  16.0,  17.0,  18.0,
                          19.0,  19.5,  20.0 , 20.05, 20.1 , 20.15, 20.2 , 20.25, 20.3 ,
                          20.35, 20.4 , 20.45, 20.5 , 20.55, 20.6 , 20.65, 20.7 , 20.75,
                          20.8 , 20.85, 20.9 , 20.95, 21.  , 21.05, 21.1 , 21.15, 21.2 ,
                          21.25, 21.3 , 21.35, 21.4 , 21.45, 21.5 , 21.55, 21.6 , 21.65,
                          21.7 , 21.75, 21.8 , 21.85, 21.9 , 21.95, 22.  , 22.05, 22.1 ,
                          22.15, 22.2 , 22.25, 22.3 , 22.35, 22.4 , 22.45, 22.5 , 22.55,
                          22.6 , 22.65, 22.7 , 22.75, 22.8 , 22.85, 22.9 , 22.95, 23.  , 
                          23.05, 23.1 , 23.15, 23.2 , 23.25, 23.3 , 23.35, 23.4 , 23.45,
                          23.5 , 23.55, 23.6 , 23.65, 23.7 , 23.75, 23.8 , 23.85, 23.9 ,
                          23.95, 24.  , 24.05, 24.1 , 24.15, 24.2 , 24.25, 24.3 , 24.35,
                          24.4 , 24.45, 24.5 , 24.55, 24.6 , 24.65, 24.7 , 24.75, 24.8 ,
                          24.85, 24.9 , 24.95, 25.  , 25.05, 25.1 , 25.15, 25.2 , 25.25,
                          25.3 , 25.35, 25.4 , 25.45, 25.5 , 25.55, 25.6 , 25.65, 25.7 ,
                          25.75, 25.8 , 25.85, 25.9 , 25.95, 26.  , 26.05, 26.1 , 26.15,
                          26.2 , 26.25, 26.3 , 26.35, 26.4 , 26.45, 26.5 , 26.55, 26.6 ,
                          26.65, 26.7 , 26.75, 26.8 , 26.85, 26.9 , 26.95, 27.  , 27.05,
                          27.1 , 27.15, 27.2 , 27.25, 27.3 , 27.31, 27.32, 27.33, 27.34,
                          27.35, 27.36, 27.37, 27.38, 27.39, 27.4 , 27.45, 27.5 ,
                          27.55, 27.6 , 27.65, 27.7 , 27.75, 27.8 , 27.85, 27.9 , 27.95,
                          28.  , 28.05, 28.1 , 28.15, 28.2 , 28.25, 28.3 , 28.35, 28.4 ,
                          28.45, 28.5 , 28.55, 28.6 , 28.65, 28.7 , 28.75, 28.8 , 28.85,
                          28.9 , 28.95, 29.0 , 30.0
                         

 &
